 SLAVE  PROCESSOR NUMBER            1  IN THE GROUP OF            2
 READ_CONFIG: FILE CONFIG NOT FOUND: CONFIG
 DEFAULTS VALUES OF LU AND LNG:           10  AND            2
 LISTING OF TELEMAC2D------------------------------------------------------------------------------

                TTTTT  EEEEE  L      EEEEE  M   M  AAAAA  CCCCC
                  T    E      L      E      MM MM  A   A  C    
                  T    EEE    L      EEE    M M M  AAAAA  C    
                  T    E      L      E      M   M  A   A  C    
                  T    EEEEE  LLLLL  EEEEE  M   M  A   A  CCCCC
                                                               
                        2D    VERSION V8P4   FORTRAN 2003       







                        ~^~^~^~^~^~^~^~^~^~^~^^~^~^~^~^~^~     
                          ~                            ~       
                               \   '    o      '               
                               /\ o       \  o                 
                             >=)'>    '   /\ '                 
                               \/   \   >=)'>        ~         
                               /    /\    \/                   
                        ~         >=)'>   /     .              
                                    \/                   )     
                                    /                   (      
                                          ~          )   )     
                          }     ~              (    (   (      
                         {                      )    )   )     
                          }  }         .       (    (   (      
                         {  {               /^^^^^^^^^^^^      
                        ^^^^^^^^^\         /                   
                                  ^^^^^^^^^                    






  
 THE KEY-WORD: PRINTING CUMULATED FLOWRATES
 APPPEARS AT LEAST TWICE , THE LAST VALUE WILL BE KEPT...
  

 VALUES OF THE KEY-WORDS:

 GRAPHIC PRINTOUT PERIOD
 MOTINT( 11)=       500

 LISTING PRINTOUT PERIOD
 MOTINT( 16)=       500

 NUMBER OF TIME STEPS
 MOTINT( 55)=     15000

 NON-NEWTONIAN MODEL
 MOTINT( 30)=         0

 TYPE OF ADVECTION
 MOTINT( 72)=         1

 TYPE OF ADVECTION
 MOTINT( 73)=         5

 TYPE OF ADVECTION
 MOTINT( 74)=         1

 TYPE OF ADVECTION
 MOTINT( 75)=         1

 NUMBER OF CULVERTS
 MOTINT(130)=         0

 TURBULENCE MODEL
 MOTINT(100)=         3

 LAW OF BOTTOM FRICTION
 MOTINT( 27)=         4

 MAXIMUM NUMBER OF ITERATIONS FOR DIFFUSION OF TRACERS
 MOTINT(115)=        60

 MAXIMUM NUMBER OF ITERATIONS FOR SOLVER
 MOTINT( 65)=       200

 SOLVER FOR DIFFUSION OF TRACERS
 MOTINT(111)=         1

 SOLVER FOR DIFFUSION OF TRACERS
 MOTINT(112)=         1

 FINITE VOLUME SCHEME FOR VELOCITY DIFFUSION
 MOTINT( 90)=         1

 MAXIMUM NUMBER OF ITERATIONS FOR K AND EPSILON
 MOTINT(107)=        50

 PRECONDITIONING
 MOTINT( 66)=         2

 INITIAL GUESS FOR H
 MOTINT( 70)=         1

 DISCRETIZATIONS IN SPACE
 MOTINT( 68)=        11

 DISCRETIZATIONS IN SPACE
 MOTINT( 69)=        11

 NUMBER OF CORRECTIONS OF DISTRIBUTIVE SCHEMES
 MOTINT( 87)=         1

 NUMBER OF SUB-STEPS OF DISTRIBUTIVE SCHEMES
 MOTINT( 88)=         1

 SOLVER
 MOTINT( 63)=         1

 BINGHAM OPTION
 MOTINT( 31)=         1

 NUMBER OF SUB-ITERATIONS FOR NON-LINEARITIES
 MOTINT( 85)=         1

 NUMBER OF FIRST TIME STEP FOR GRAPHIC PRINTOUTS
 MOTINT( 10)=         0

 NUMBER OF FIRST TIME STEP FOR LISTING PRINTOUTS
 MOTINT( 15)=         0

 PRECONDITIONING FOR DIFFUSION OF TRACERS
 MOTINT(114)=         2

 SOLVER FOR K-EPSILON MODEL
 MOTINT(101)=         1

 PRECONDITIONING FOR K-EPSILON MODEL
 MOTINT(103)=         2

 TURBULENCE REGIME FOR SOLID BOUNDARIES
 MOTINT(104)=         2

 MAXIMUM NUMBER OF DROGUES
 MOTINT(119)=         0

 PRINTOUT PERIOD FOR DROGUES
 MOTINT(120)=         1

 NUMBER OF LAGRANGIAN DRIFTS
 MOTINT(127)=         0

 BOTTOM SMOOTHINGS
 MOTINT(  1)=         0

 SOLVER OPTION FOR TRACERS DIFFUSION
 MOTINT(113)=         2

 SOLVER OPTION
 MOTINT( 64)=         2

 OPTION FOR THE SOLVER FOR K-EPSILON MODEL
 MOTINT(102)=         2

 OPTION FOR THE TREATMENT OF TIDAL FLATS
 MOTINT(108)=         1

 VECTOR LENGTH
 MOTINT(  6)=         1

 SUPG OPTION
 MOTINT( 77)=         0

 SUPG OPTION
 MOTINT( 78)=         0

 SUPG OPTION
 MOTINT( 79)=         2

 SUPG OPTION
 MOTINT( 80)=         2

 INITIAL GUESS FOR U
 MOTINT( 71)=         1

 RECORD NUMBER FOR RESTART
 MOTINT(  7)=        -1

 MATRIX STORAGE
 MOTINT( 96)=         3

 ORIGINAL DATE OF TIME
 MOTINT( 56)=      1900

 ORIGINAL DATE OF TIME
 MOTINT( 57)=         1

 ORIGINAL DATE OF TIME
 MOTINT( 58)=         1

 ORIGINAL HOUR OF TIME
 MOTINT( 59)=         0

 ORIGINAL HOUR OF TIME
 MOTINT( 60)=         0

 ORIGINAL HOUR OF TIME
 MOTINT( 61)=         0

 MATRIX-VECTOR PRODUCT
 MOTINT( 97)=         1

 CONTROL SECTIONS
 VALUE NOT FOUND

 NUMBER OF WEIRS
 MOTINT(128)=         0

 FINITE VOLUME SCHEME FOR TRACER DIFFUSION
 MOTINT( 91)=         1

 FINITE VOLUME SCHEME FOR TRACER DIFFUSION
 MOTINT( 92)=         1

 OPTION FOR LIQUID BOUNDARIES
 VALUE NOT FOUND

 TREATMENT OF THE LINEAR SYSTEM
 MOTINT( 45)=         2

 PARALLEL PROCESSORS
 MOTINT(  2)=         0

 VELOCITY PROFILES
 MOTINT( 22)=         4

 VELOCITY PROFILES
 MOTINT( 23)=         1

 OPTION FOR THE DIFFUSION OF TRACERS
 MOTINT(116)=         1

 OPTION FOR THE DIFFUSION OF VELOCITIES
 MOTINT( 89)=         1

 TYPE OF SOURCES
 MOTINT( 40)=         1

 NUMBER OF PRIVATE ARRAYS
 MOTINT( 12)=         0

 LANGUAGE
 MOTINT(142)=         2

 RECORD NUMBER IN WAVE FILE
 MOTINT( 36)=         1

 IDENTIFICATION METHOD
 MOTINT( 38)=         1

 LIST OF POINTS
 VALUE NOT FOUND

 COST FUNCTION
 MOTINT( 37)=         1

 MAXIMUM NUMBER OF ITERATIONS FOR IDENTIFICATION
 MOTINT( 39)=        20

 COUPLING PERIOD FOR SISYPHE
 MOTINT(140)=         1

 FINITE VOLUME SCHEME
 MOTINT( 46)=         1

 MAXIMUM NUMBER OF FRICTION DOMAINS
 MOTINT( 26)=        10

 LISTING FOR PRINTOUT PERIOD
 MOTINT( 17)=         1

 OPTION FOR DIRICHLET CONDITION IN FV DIFFUSION
 MOTINT( 94)=         1

 DELWAQ PRINTOUT PERIOD
 MOTINT(139)=         1

 NUMBER OF TRACERS
 MOTINT(110)=         0

 STAGE-DISCHARGE CURVES
 VALUE NOT FOUND

 DEBUGGER
 MOTINT( 54)=         0

 TREATMENT OF NEGATIVE DEPTHS
 MOTINT(109)=         2

 DEPTH IN FRICTION TERMS
 MOTINT( 28)=         1

 LAW OF FRICTION ON LATERAL BOUNDARIES
 MOTINT( 29)=         4

 COUPLING PERIOD FOR TOMAWAC
 MOTINT(141)=         1

 TREATMENT OF FLUXES AT THE BOUNDARIES
 MOTINT( 86)=         1

 OPTION FOR TIDAL BOUNDARY CONDITIONS
 VALUE NOT FOUND

 OPTION FOR TSUNAMI GENERATION
 MOTINT( 53)=         0

 TIDAL DATA BASE
 MOTINT(137)=        -1

 GEOGRAPHIC SYSTEM
 MOTINT(132)=        -1

 ZONE NUMBER IN GEOGRAPHIC SYSTEM
 MOTINT(133)=        -1

 NUMBER OF ALGAE CLASSES
 MOTINT(121)=         0

 SPATIAL PROJECTION TYPE
 MOTINT( 62)=         1

 ALGAE TYPE
 MOTINT(122)=         1

 ALGAE TYPE
 MOTINT(123)=         1

 OPTION FOR CHARACTERISTICS
 MOTINT( 76)=         1

 MAXIMUM NUMBER OF ITERATIONS FOR ADVECTION SCHEMES
 MOTINT( 82)=        50

 STOCHASTIC DIFFUSION MODEL
 MOTINT(126)=         0

 NUMBER OF GAUSS POINTS FOR WEAK CHARACTERISTICS
 MOTINT( 81)=         3

 TYPE OF WEIRS
 MOTINT(129)=         1

 SCHEME FOR ADVECTION OF VELOCITIES
 MOTINT( 83)=        14

 SCHEME FOR ADVECTION OF TRACERS
 MOTINT(117)=         5

 SCHEME FOR ADVECTION OF K-EPSILON
 MOTINT(105)=        14

 SCHEME OPTION FOR ADVECTION OF TRACERS
 MOTINT(118)=         1

 SCHEME OPTION FOR ADVECTION OF VELOCITIES
 MOTINT( 84)=         1

 SCHEME OPTION FOR ADVECTION OF K-EPSILON
 MOTINT(106)=         1

 OPTION FOR WIND
 MOTINT( 32)=         1

 MAXIMUM NUMBER OF BOUNDARIES
 MOTINT(  3)=        30

 MAXIMUM NUMBER OF SOURCES
 MOTINT(  4)=        20

 MAXIMUM NUMBER OF TRACERS
 MOTINT(  5)=        20

 LOCAL NUMBER OF THE POINT TO CALIBRATE HIGH WATER
 MOTINT(138)=         0

 GLOBAL NUMBER OF THE POINT TO CALIBRATE HIGH WATER
 MOTINT(134)=         0

 WATER QUALITY PROCESS
 MOTINT( 44)=         1

 OPTION OF THE HYDROSTATIC RECONSTRUCTION
 MOTINT( 98)=         1

 OPTION FOR CULVERTS
 MOTINT(131)=         1

 RAINFALL-RUNOFF MODEL
 MOTINT( 33)=         0

 AD NUMBER OF DERIVATIVES
 MOTINT( 95)=         0

 ANTECEDENT MOISTURE CONDITIONS
 MOTINT( 34)=         2

 OPTION FOR INITIAL ABSTRACTION RATIO
 MOTINT( 35)=         1

 REFINEMENT LEVELS
 MOTINT( 99)=         0

 FINITE ELEMENT ASSEMBLY
 MOTINT( 67)=         1

 RESTART FILE PRINTOUT PERIOD
 MOTINT(  8)=         0

 RECORD NUMBER IN RESTART FILE
 MOTINT(  9)=        -1

 GLOBAL NUMBERS OF SOURCE NODES
 VALUE NOT FOUND

 MAXIMUM NUMBER OF POINTS FOR SOURCES REGIONS
 MOTINT( 43)=        10

 ALGAE RELEASE TYPE
 MOTINT(124)=         1

 ALGAE RELEASE TYPE
 MOTINT(125)=         1

 FINITE VOLUME SCHEME SPACE ORDER
 MOTINT( 47)=         1

 FINITE VOLUME SCHEME TIME ORDER
 MOTINT( 48)=         1

 FLUX LIMITOR FOR H PLUS Z
 MOTINT( 49)=         1

 FLUX LIMITOR FOR U AND V
 MOTINT( 50)=         2

 FLUX LIMITOR FOR TRACERS
 MOTINT( 51)=         2

 TYPE OF BOUNDARY CONDITION FOR KINETIC SCHEME
 MOTINT( 52)=         1

 OPTION FOR THE RTPF SCHEME RECONSTRUCTIONS
 MOTINT( 93)=         1

 TIME STEP
 MOTREA( 69)=     1.000000    

 GRAVITY ACCELERATION
 MOTREA( 55)=     9.810000    

 ZERO
 MOTREA( 97)=    0.1000000E-09

 FRICTION COEFFICIENT
 MOTREA( 15)=    0.6863406E-01

 CORIOLIS COEFFICIENT
 MOTREA( 56)=     0.000000    

 COEFFICIENT OF WIND INFLUENCE
 MOTREA( 23)=    0.1550000E-05

 WIND VELOCITY ALONG X
 MOTREA( 24)=     0.000000    

 WIND VELOCITY ALONG Y
 MOTREA( 25)=     0.000000    

 INITIAL VALUES OF TRACERS
 MOTREA(111)=     0.000000    

 INITIAL VALUES OF TRACERS
 MOTREA(112)=     0.000000    

 COEFFICIENT FOR DIFFUSION OF TRACERS
 MOTREA(120)=    0.1000000E-05

 ACCURACY FOR DIFFUSION OF TRACERS
 MOTREA(114)=    0.1000000E-05

 IMPLICITATION COEFFICIENT OF TRACERS
 MOTREA(119)=    0.6000000    

 VELOCITY DIFFUSIVITY
 MOTREA( 98)=    0.1000000E-05

 SOLVER ACCURACY
 MOTREA( 87)=    0.1000000E-03

 LIMIT VALUES
 MOTREA( 74)=    -1000.000    

 LIMIT VALUES
 MOTREA( 75)=     9000.000    

 LIMIT VALUES
 MOTREA( 76)=    -1000.000    

 LIMIT VALUES
 MOTREA( 77)=     1000.000    

 LIMIT VALUES
 MOTREA( 78)=    -1000.000    

 LIMIT VALUES
 MOTREA( 79)=     1000.000    

 LIMIT VALUES
 MOTREA( 80)=    -1000.000    

 LIMIT VALUES
 MOTREA( 81)=     1000.000    

 THRESHOLD DEPTH FOR RECEDING PROCEDURE
 MOTREA(107)=     0.000000    

 IMPLICITATION FOR DEPTH
 MOTREA( 88)=    0.5500000    

 IMPLICITATION FOR VELOCITY
 MOTREA( 89)=    0.5500000    

 IMPLICITATION FOR DIFFUSION OF VELOCITY
 MOTREA( 95)=     1.000000    

 MASS-LUMPING ON H
 MOTREA( 92)=     1.000000    

 MASS-LUMPING ON VELOCITY
 MOTREA( 93)=     1.000000    

 MINIMUM VALUE OF DEPTH
 MOTREA(108)=     0.000000    

 NON-NEWTONIAN VISCOSITY
 MOTREA( 18)=     0.000000    

 ACCURACY OF K
 MOTREA(104)=    0.1000000E-08

 ACCURACY OF EPSILON
 MOTREA(105)=    0.1000000E-08

 MEAN DEPTH FOR LINEARIZATION
 MOTREA( 90)=     0.000000    

 WATER DENSITY
 MOTREA( 54)=     1000.000    

 LATITUDE OF ORIGIN POINT
 MOTREA( 84)=     48.00000    

 ROUGHNESS COEFFICIENT OF BOUNDARIES
 MOTREA( 17)=    0.3000000E-01

 PRESCRIBED FLOWRATES
 MOTREA( 10)=     35.47709    

 PRESCRIBED FLOWRATES
 MOTREA( 11)=     0.000000    

 PRESCRIBED ELEVATIONS
 MOTREA(  8)=     374.8057    

 PRESCRIBED ELEVATIONS
 MOTREA(  9)=     371.3300    

 PRESCRIBED VELOCITIES
 VALUE NOT FOUND

 INITIAL ELEVATION
 MOTREA(  1)=     0.000000    

 INITIAL DEPTH
 MOTREA(  2)=     1.000000    

 PRESCRIBED TRACERS VALUES
 VALUE NOT FOUND

 ABSCISSAE OF SOURCES
 VALUE NOT FOUND

 ORDINATES OF SOURCES
 VALUE NOT FOUND

 WATER DISCHARGE OF SOURCES
 VALUE NOT FOUND

 VALUES OF THE TRACERS AT THE SOURCES
 VALUE NOT FOUND

 MIXING LENGTH MODEL COEFFICIENTS
 MOTREA(102)=    0.1066667    

 MIXING LENGTH MODEL COEFFICIENTS
 MOTREA(103)=    0.6666670E-01

 STOP CRITERIA
 MOTREA( 71)=    0.1000000E-03

 STOP CRITERIA
 MOTREA( 72)=    0.1000000E-03

 STOP CRITERIA
 MOTREA( 73)=    0.1000000E-03

 MEAN TEMPERATURE
 MOTREA(113)=     20.00000    

 VELOCITIES OF THE SOURCES ALONG X
 VALUE NOT FOUND

 VELOCITIES OF THE SOURCES ALONG Y
 VALUE NOT FOUND

 DURATION
 MOTREA( 70)=     0.000000    

 NORTH
 MOTREA( 86)=     0.000000    

 NON-DIMENSIONAL DISPERSION COEFFICIENTS
 MOTREA(100)=     6.000000    

 NON-DIMENSIONAL DISPERSION COEFFICIENTS
 MOTREA(101)=    0.6000000    

 LONGITUDE OF ORIGIN POINT
 MOTREA( 85)=     0.000000    

 MASS-LUMPING ON TRACERS
 MOTREA(121)=     1.000000    

 DESIRED COURANT NUMBER
 MOTREA( 82)=     1.000000    

 FOURIER ANALYSIS PERIODS
 VALUE NOT FOUND

 TOLERANCES FOR IDENTIFICATION
 MOTREA( 40)=    0.1000000E-02

 TOLERANCES FOR IDENTIFICATION
 MOTREA( 41)=    0.1000000E-02

 TOLERANCES FOR IDENTIFICATION
 MOTREA( 42)=    0.1000000E-02

 TOLERANCES FOR IDENTIFICATION
 MOTREA( 43)=    0.1000000E-03

 MANNING DEFAULT VALUE FOR COLEBROOK-WHITE LAW
 MOTREA( 16)=    0.2000000E-01

 MINIMUM DEPTH TO COMPUTE TIDAL VELOCITIES INITIAL CONDITIONS
 MOTREA(139)=    0.1000000    

 MINIMUM DEPTH TO COMPUTE TIDAL VELOCITIES BOUNDARY CONDITIONS
 MOTREA(142)=    0.1000000    

 THRESHOLD DEPTH FOR WIND
 MOTREA( 28)=     1.000000    

 THRESHOLD FOR NEGATIVE DEPTHS
 MOTREA(106)=     0.000000    

 FREE SURFACE GRADIENT COMPATIBILITY
 MOTREA( 94)=    0.1000000    

 TIME RANGE FOR FOURIER ANALYSIS
 MOTREA(  6)=     0.000000    

 TIME RANGE FOR FOURIER ANALYSIS
 MOTREA(  7)=     0.000000    

 NEWMARK TIME INTEGRATION COEFFICIENT
 MOTREA( 96)=    0.5000000    

 RAIN OR EVAPORATION IN MM PER DAY
 MOTREA( 30)=     0.000000    

 PHYSICAL CHARACTERISTICS OF THE TSUNAMI
 MOTREA( 57)=     100.0000    

 PHYSICAL CHARACTERISTICS OF THE TSUNAMI
 MOTREA( 58)=     210000.0    

 PHYSICAL CHARACTERISTICS OF THE TSUNAMI
 MOTREA( 59)=     75000.00    

 PHYSICAL CHARACTERISTICS OF THE TSUNAMI
 MOTREA( 60)=     13.60000    

 PHYSICAL CHARACTERISTICS OF THE TSUNAMI
 MOTREA( 61)=     81.00000    

 PHYSICAL CHARACTERISTICS OF THE TSUNAMI
 MOTREA( 62)=     41.00000    

 PHYSICAL CHARACTERISTICS OF THE TSUNAMI
 MOTREA( 63)=     110.0000    

 PHYSICAL CHARACTERISTICS OF THE TSUNAMI
 MOTREA( 64)=     0.000000    

 PHYSICAL CHARACTERISTICS OF THE TSUNAMI
 MOTREA( 65)=     0.000000    

 PHYSICAL CHARACTERISTICS OF THE TSUNAMI
 MOTREA( 66)=     3.000000    

 VALUES OF TRACERS IN THE RAIN
 VALUE NOT FOUND

 COEFFICIENT TO CALIBRATE TIDAL RANGE
 MOTREA(140)=     1.000000    

 COEFFICIENT TO CALIBRATE TIDAL VELOCITIES
 MOTREA(141)=     999999.0    

 COEFFICIENT TO CALIBRATE SEA LEVEL
 MOTREA(138)=     0.000000    

 INITIAL DROGUES SAMPLING DENSITY
 MOTREA(122)=     1000.000    

 INITIAL DROGUES SAMPLING DENSITY
 MOTREA(123)=     1000.000    

 DIAMETER OF ALGAE
 MOTREA(124)=    0.1000000    

 DIAMETER OF ALGAE
 MOTREA(125)=    0.1000000    

 DENSITY OF ALGAE
 MOTREA(128)=     1050.000    

 DENSITY OF ALGAE
 MOTREA(129)=     1050.000    

 THICKNESS OF ALGAE
 MOTREA(130)=    0.1000000E-01

 THICKNESS OF ALGAE
 MOTREA(131)=    0.1000000E-01

 MASS-LUMPING FOR WEAK CHARACTERISTICS
 MOTREA( 91)=     0.000000    

 SPEED AND DIRECTION OF WIND
 MOTREA( 26)=     0.000000    

 SPEED AND DIRECTION OF WIND
 MOTREA( 27)=     0.000000    

 VALUE OF ATMOSPHERIC PRESSURE
 MOTREA( 29)=     100000.0    

 PRODUCTION COEFFICIENT FOR SECONDARY CURRENTS
 MOTREA( 67)=     7.071000    

 DISSIPATION COEFFICIENT FOR SECONDARY CURRENTS
 MOTREA( 68)=    0.5000000    

 DURATION OF RAIN OR EVAPORATION IN HOURS
 MOTREA( 35)=     1000000.    

 ACCURACY OF SPALART-ALLMARAS
 MOTREA( 99)=    0.1000000E-08

 DURATION BEFORE ALGAE RELEASE
 MOTREA(126)=     0.000000    

 DURATION BEFORE ALGAE RELEASE
 MOTREA(127)=     0.000000    

 SECURITY COEFFICIENT FOR SCARACT
 MOTREA(  3)=     1.000000    

 WAVE ORBITAL VELOCITY THRESHOLD FOR ALGAE 1
 MOTREA(132)=     2.000000    

 WAVE ORBITAL VELOCITY THRESHOLD FOR ALGAE 1
 MOTREA(133)=     2.000000    

 WAVE ORBITAL VELOCITY THRESHOLD FOR ALGAE 2
 MOTREA(134)=     0.000000    

 WAVE ORBITAL VELOCITY THRESHOLD FOR ALGAE 2
 MOTREA(135)=     0.000000    

 RATE OF DEGRADATION FOR ALGAE
 MOTREA(136)=     0.000000    

 RATE OF DEGRADATION FOR ALGAE
 MOTREA(137)=     0.000000    

 AIR TEMPERATURE
 MOTREA( 36)=     20.00000    

 CLOUD COVER
 MOTREA( 37)=     5.000000    

 SOLAR RADIATION
 MOTREA( 38)=     160.0000    

 VAPOROUS PRESSURE
 MOTREA( 39)=     1000.000    

 NON-NEWTONIAN YIELD STRESS
 MOTREA( 19)=     0.000000    

 NON-NEWTONIAN LAMINAR RESISTANCE PARAMETER K
 MOTREA( 20)=     24.00000    

 NON-NEWTONIAN FLUID DENSITY
 MOTREA( 21)=     1000.000    

 HERSCHEL-BULKLEY POWER-LAW INDEX
 MOTREA( 22)=     1.000000    

 STAGE-DISCHARGE CURVES RELAXATION COEFFICIENT
 MOTREA( 14)=    0.2000000E-01

 DESIRED FOURIER NUMBER
 MOTREA( 83)=     1.000000    

 HORTON TIME CONSTANT
 MOTREA( 31)=    0.1000000E-02

 INITIAL WATER CONTENT
 MOTREA( 32)=     0.000000    

 SATURATED WATER CONTENT
 MOTREA( 33)=    0.5000000    

 SUCTION
 MOTREA( 34)=    0.2000000    

 COMPUTATION CONTINUED
 MOTLOG(  4)= F

 BREACH
 MOTLOG( 56)= F

 LISTING PRINTOUT
 MOTLOG( 12)= T

 DIFFUSION OF VELOCITY
 MOTLOG( 41)= T

 AIR PRESSURE
 MOTLOG( 22)= F

 ADVECTION
 MOTLOG( 38)= T

 ADVECTION OF U AND V
 MOTLOG( 40)= T

 ADVECTION OF H
 MOTLOG( 39)= T

 ADVECTION OF TRACERS
 MOTLOG( 52)= T

 ADVECTION OF K AND EPSILON
 MOTLOG( 48)= T

 DIFFUSION OF TRACERS
 MOTLOG( 53)= T

 PROPAGATION
 MOTLOG( 36)= T

 CORIOLIS
 MOTLOG( 28)= F

 WIND
 MOTLOG( 20)= F

 INFORMATION ABOUT SOLVER
 MOTLOG( 14)= T

 MASS-BALANCE
 MOTLOG( 13)= T

 H CLIPPING
 MOTLOG( 50)= F

 SPHERICAL COORDINATES
 MOTLOG( 33)= F

 RAIN OR EVAPORATION
 MOTLOG( 23)= F

 LINEARIZED PROPAGATION
 MOTLOG( 37)= F

 VALIDATION
 MOTLOG(  2)= F

 INFORMATION ABOUT K-EPSILON MODEL
 MOTLOG( 47)= T

 CONTROL OF LIMITS
 MOTLOG( 31)= F

 TIDAL FLATS
 MOTLOG( 49)= T

 STOP IF A STEADY STATE IS REACHED
 MOTLOG( 30)= F

 ELEMENTS MASKED BY USER
 MOTLOG( 15)= F

 DENSITY EFFECTS
 MOTLOG( 51)= F

 TIDE GENERATING FORCE
 MOTLOG( 60)= F

 CONTINUITY CORRECTION
 MOTLOG( 34)= T

 INITIAL TIME SET TO ZERO
 MOTLOG(  5)= F

 C-U PRECONDITIONING
 MOTLOG( 35)= T

 VARIABLE TIME-STEP
 MOTLOG( 32)= F

 WAVE DRIVEN CURRENTS
 MOTLOG( 25)= F

 VERTICAL STRUCTURES
 MOTLOG( 27)= F

 AD SYMBOLIC LINEAR SOLVER
 MOTLOG( 42)= F

 DEFINITION OF ZONES
 MOTLOG( 18)= F

 FRICTION DATA
 MOTLOG( 16)= F

 VEGETATION FRICTION
 MOTLOG( 17)= F

 PRINTING CUMULATED FLOWRATES
 MOTLOG(  9)= T

 COMPATIBLE COMPUTATION OF FLUXES
 MOTLOG( 10)= F

 SALINITY FOR DELWAQ
 MOTLOG( 64)= F

 TEMPERATURE FOR DELWAQ
 MOTLOG( 63)= F

 VELOCITY FOR DELWAQ
 MOTLOG( 61)= F

 DIFFUSIVITY FOR DELWAQ
 MOTLOG( 62)= F

 OIL SPILL MODEL
 MOTLOG( 55)= F

 MINOR CONSTITUENTS INFERENCE
 MOTLOG( 58)= F

 ALGAE TRANSPORT MODEL
 MOTLOG( 54)= F

 INFORMATION ABOUT SPALART-ALLMARAS MODEL
 MOTLOG( 46)= T

 SECONDARY CURRENTS
 MOTLOG( 29)= F

 WAVE ENHANCED FRICTION FACTOR
 MOTLOG( 26)= F

 CHECKING THE MESH
 MOTLOG(  3)= F

 FLUXLINE
 MOTLOG( 11)= F

 CONVERGENCE STUDY
 MOTLOG( 45)= F

 AD LINEAR SOLVER RESET DERIVATIVES
 MOTLOG( 43)= T

 AD LINEAR SOLVER DERIVATIVE CONVERGENCE
 MOTLOG( 44)= T

 RESULT FILE IN LONGITUDE-LATITUDE
 MOTLOG(  8)= T

 NESTOR
 MOTLOG( 65)= F

 CONCATENATE PARTEL OUTPUT
 MOTLOG( 66)= F

 COEFFICIENT OF WIND INFLUENCE VARYING WITH WIND SPEED
 MOTLOG( 21)= T

 BOTTOM SMOOTHINGS AFTER USER MODIFICATIONS
 MOTLOG(  1)= T

 INITIAL VELOCITIES COMPUTED BY TPXO
 MOTLOG( 59)= T

 NON-NEWTONIAN PSEUDO-BIPHASIC MODEL
 MOTLOG( 19)= F

 FREE FORMAT FOR ATMOSPHERIC DATA FILE
 MOTLOG( 24)= F

 INITIAL WIDTHS OF BREACHES
 MOTLOG( 57)= F

 RESTART MODE
 MOTLOG(  6)= F

 USE MAXIMUM VALUES FROM PREVIOUS COMPUTATION FILE
 MOTLOG(  7)= T

 TITLE
 MOTCAR(  1)= 2d steady

 VARIABLES FOR GRAPHIC PRINTOUTS
 MOTCAR( 20)= U,V,S,B,Q,F,H

 VARIABLES TO BE PRINTED
 MOTCAR( 37)= 

 GEOMETRY FILE
 MOTCAR( 10) = T2DGEO-READ;T2DGEO;OBLIG;BIN;LIT;SELAFIN-GEOM ; qgismesh.slf

 FORTRAN FILE
 MOTCAR( 11) = INUTILE;INUTILE;FACUL;ASC;LIT;FORTRAN ; 

 STEERING FILE
 MOTCAR( 97) = INUTILE;T2DCAS;OBLIG;ASC;LIT;CAS ; 

 BOUNDARY CONDITIONS FILE
 MOTCAR( 13) = T2DLIM-READ;T2DCLI;OBLIG;ASC;LIT;CONLIM ; boundaries.cli

 PREVIOUS COMPUTATION FILE
 MOTCAR( 17) = T2DPRE-READ;T2DPRE;FACUL;BIN;LIT;SELAFIN ; 

 RESULTS FILE
 MOTCAR( 24) = T2DRES-WRITE;T2DRES;OBLIG;BIN;ECR;SELAFIN ; r2dsteady-4.slf

 AD NAMES OF DERIVATIVES
 VALUE NOT FOUND

 FORMATTED RESULTS FILE 1
 MOTCAR( 28) = T2DRF1-WRITE;T2DRF1;FACUL;ASC;ECR;SCAL ; 

 BOTTOM TOPOGRAPHY FILE
 MOTCAR( 12) = T2DFON-READ;T2DFON;FACUL;ASC;LIT;PARAL ; 

 TIDAL MODEL FILE FORMAT
 MOTCAR( 72)= SERAFIN

 BINARY DATA FILE 1
 MOTCAR(  4) = T2DBI1-READ;T2DBI1;FACUL;BIN;LIT;SELAFIN ; 

 BINARY DATA FILE 2
 MOTCAR(  6) = T2DBI2-READ;T2DBI2;FACUL;BIN;LIT;PARAL ; 

 FORMATTED DATA FILE 1
 MOTCAR(  7) = T2DFO1-READ;T2DFO1;FACUL;ASC;LIT;PARAL ; 

 FORMATTED DATA FILE 2
 MOTCAR(  8) = T2DFO2-READ;T2DFO2;FACUL;ASC;LIT;PARAL ; 

 FORMATTED RESULTS FILE 2
 MOTCAR( 29) = T2DRF2-WRITE;T2DRF2;FACUL;ASC;ECR;SCAL ; 

 FORMATTED RESULTS FILE 3
 MOTCAR( 30) = T2DRF3-WRITE;T2DRF3;FACUL;ASC;ECR;SCAL ; 

 NAMES OF CLANDESTINE VARIABLES
 VALUE NOT FOUND

 BINARY RESULTS FILE
 MOTCAR( 26) = T2DRBI-WRITE;T2DRBI;FACUL;BIN;ECR;PARAL ; 

 FORMATTED RESULTS FILE
 MOTCAR( 27) = T2DRFO-WRITE;T2DRFO;FACUL;ASC;ECR;SCAL ; 

 INITIAL CONDITIONS
 MOTCAR(  2)= ZERO DEPTH

 GEOMETRY FILE FORMAT
 MOTCAR(  9)= SERAFIN

 RESULTS FILE FORMAT
 MOTCAR( 23)= SERAFIN

 PREVIOUS COMPUTATION FILE FORMAT
 MOTCAR( 16)= SERAFIN

 FORMATTED RESULTS FILE 4
 MOTCAR( 31) = T2DRF4-WRITE;T2DRF4;FACUL;ASC;ECR;SCAL ; 

 FORMATTED RESULTS FILE 5
 MOTCAR( 32) = T2DRF5-WRITE;T2DRF5;FACUL;ASC;ECR;SCAL ; 

 FORMATTED RESULTS FILE 6
 MOTCAR( 33) = T2DRF6-WRITE;T2DRF6;FACUL;ASC;ECR;SCAL ; 

 ASCII ATMOSPHERIC DATA FILE
 MOTCAR( 44) = T2ATMA-READ;T2ATMA;FACUL;ASC;LIT;SCAL ; 

 BINARY ATMOSPHERIC DATA FILE
 MOTCAR( 45) = T2ATMB-READ;T2ATMB;FACUL;BIN;LIT;SELAFIN ; 

 LAMBERT 93 CONVERSION FILE
 MOTCAR( 69) = NL93-READ;T2DL93;FACUL;ASC;LIT;SCAL ; 

 EQUATIONS
 MOTCAR( 50)= SAINT-VENANT FE

 REFERENCE FILE
 MOTCAR( 15) = T2DREF-READ;T2DREF;FACUL;BIN;LIT;SELAFIN ; 

 LIQUID BOUNDARIES FILE
 MOTCAR( 41) = T2DIMP-READ;T2DIMP;FACUL;ASC;LIT;PARAL ; 

 WEIRS DISCHARGE OUTPUT FILE
 MOTCAR( 64) = T2DWOP-WRITE;T2DWOP;FACUL;ASC;ECR;WEIRS ; 

 COUPLING WITH
 MOTCAR( 74)= 

 BINARY ATMOSPHERIC DATA FILE FORMAT
 MOTCAR( 46)= SERAFIN

 RESTART FILE
 MOTCAR( 18) = T2DRST-WRITE;T2DRST;FACUL;BIN;ECR;SELAFIN ; 

 RESTART FILE FORMAT
 MOTCAR( 19)= SERAFIND

 DROGUES INITIAL POSITIONING DATA FILE
 MOTCAR( 60) = T2DPLY-READ;T2DPLY;FACUL;ASC;LIT;PARAL ; 

 FORMAT OF THE DROGUES POSITIONING DATA FILE
 MOTCAR( 61)= BKASCI2S

 NESTOR ACTION FILE
 MOTCAR( 93) = T2NACT-READ;T2NACT;FACUL;ASC;LIT;PARAL ; 

 NESTOR POLYGON FILE
 MOTCAR( 94) = T2NPOL-READ;T2NPOL;FACUL;ASC;LIT;PARAL ; 

 NESTOR SURFACE REFERENCE FILE
 MOTCAR( 95) = T2NREF-READ;T2NREF;FACUL;ASC;LIT;PARAL ; 

 NESTOR RESTART FILE
 MOTCAR( 96) = T2NRST-READ;T2NRST;FACUL;ASC;LIT;PARAL ; 

 PREVIOUS DROGUES FILE FORMAT
 MOTCAR( 59)= BKBINPCL

 DROGUES FILE FORMAT
 MOTCAR( 57)= TECPLOT

 PREVIOUS DROGUES FILE
 MOTCAR( 58) = T2DPLO-READ;T2DPLO;FACUL;BIN;LIT;SCAL ; 

 GAIA STEERING FILE
 MOTCAR( 89)= 

 ZONES FILE
 MOTCAR( 43) = T2DZFI-READ;T2DZFI;FACUL;ASC;LIT;ZONES ; 

 PARAMETER ESTIMATION
 MOTCAR( 47)= 

 NAMES OF POINTS
 VALUE NOT FOUND

 SISYPHE STEERING FILE
 MOTCAR( 88)= 

 FRICTION DATA FILE
 MOTCAR( 42) = T2DCOF-READ;T2DCOF;FACUL;ASC;LIT;PARAL ; 

 VOLUMES DELWAQ FILE
 MOTCAR( 81) = T2DDL1-WRITE;T2DDL1;FACUL;BIN;ECR;DELWAQPTS ; 

 EXCHANGE AREAS DELWAQ FILE
 MOTCAR( 82) = T2DDL2-WRITE;T2DDL2;FACUL;BIN;ECR;DELWAQSEG ; 

 VERTICAL FLUXES DELWAQ FILE
 MOTCAR( 83) = T2DDL3-WRITE;T2DDL3;FACUL;BIN;ECR;DELWAQSEG ; 

 SALINITY DELWAQ FILE
 MOTCAR( 87) = T2DDL4-WRITE;T2DDL4;FACUL;BIN;ECR;DELWAQPTS ; 

 BOTTOM SURFACES DELWAQ FILE
 MOTCAR( 80) = T2DDL5-WRITE;T2DDL5;FACUL;BIN;ECR;DELWAQMET ; 

 EXCHANGES BETWEEN NODES DELWAQ FILE
 MOTCAR( 78) = T2DDL6-WRITE;T2DDL6;FACUL;BIN;ECR;DELWAQMET ; 

 NODES DISTANCES DELWAQ FILE
 MOTCAR( 79) = T2DDL7-WRITE;T2DDL7;FACUL;BIN;ECR;DELWAQMET ; 

 DELWAQ STEERING FILE
 MOTCAR( 77) = T2DL11-WRITE;T2DL11;FACUL;ASC;ECR;DELWAQHYD ; 

 TEMPERATURE DELWAQ FILE
 MOTCAR( 86) = T2DDL8-WRITE;T2DDL8;FACUL;BIN;ECR;DELWAQPTS ; 

 STAGE-DISCHARGE CURVES FILE
 MOTCAR( 40) = T2DMAB-READ;T2DMAB;FACUL;ASC;LIT;PARAL ; 

 NAMES OF TRACERS
 VALUE NOT FOUND

 SOURCES FILE
 MOTCAR( 48) = T2DVEF-READ;T2DVEF;FACUL;ASC;LIT;PARAL ; 

 VELOCITY DELWAQ FILE
 MOTCAR( 84) = T2DDL9-WRITE;T2DDL9;FACUL;BIN;ECR;DELWAQPTS ; 

 DIFFUSIVITY DELWAQ FILE
 MOTCAR( 85) = T2DL10-WRITE;T2DL10;FACUL;BIN;ECR;DELWAQPTS ; 

 REFERENCE FILE FORMAT
 MOTCAR( 14)= SERAFIN

 SECTIONS INPUT FILE
 MOTCAR( 34) = NSCS-READ;T2DSEC;FACUL;ASC;LIT;SECTION ; 

 SECTIONS OUTPUT FILE
 MOTCAR( 35) = NSEO-WRITE;T2DSEO;FACUL;ASC;ECR;SCAL ; 

 OIL SPILL STEERING FILE
 MOTCAR( 62) = NMIG-READ;T2DMIG;FACUL;ASC;LIT;PARAL ; 

 TOMAWAC STEERING FILE
 MOTCAR( 90)= 

 HARMONIC CONSTANTS FILE
 MOTCAR( 70) = NHAR-READWRITE;T2DHAR;FACUL;ASC;ECRLIT;PARAL ; 

 TIDAL MODEL FILE
 MOTCAR( 71) = NTID-READ;T2DTID;FACUL;BIN;LIT;SCAL ; 

 ASCII DATABASE FOR TIDE
 MOTCAR( 73) = NBDD-READ;T2DBDD;FACUL;ASC;LIT;PARAL ; 

 BINARY DATABASE 1 FOR TIDE
 MOTCAR( 67) = NBB1-READ;T2DBB1;FACUL;BIN;LIT;SCAL ; 

 BINARY DATABASE 2 FOR TIDE
 MOTCAR( 68) = NBB2-READ;T2DBB2;FACUL;BIN;LIT;SCAL ; 

 WEIRS DATA FILE
 MOTCAR( 63) = T2DSEU-READ;T2DSEU;FACUL;ASC;LIT;WEIRS ; 

 BINARY DROGUES FILE
 MOTCAR( 56) = T2DBLO-WRITE;T2DBLO;FACUL;BIN;ECR;SCAL ; 

 CULVERTS DATA FILE
 MOTCAR( 65) = T2DBUS-READ;T2DBUS;FACUL;ASC;LIT;SCAL ; 

 BREACHES DATA FILE
 MOTCAR( 66) = T2DBRC-READ;T2DBRC;FACUL;ASC;LIT;SCAL ; 

 ASCII DROGUES FILE
 MOTCAR( 55) = T2DFLO-WRITE;T2DFLO;FACUL;ASC;ECR;SCAL ; 

 WAQTEL STEERING FILE
 MOTCAR( 91)= 

 KHIONE STEERING FILE
 MOTCAR( 92)= 

 BINARY RESULTS FILE FORMAT
 MOTCAR( 25)= BIN

 BINARY DATA FILE 1 FORMAT
 MOTCAR(  3)= BIN

 BINARY DATA FILE 2 FORMAT
 MOTCAR(  5)= BIN

 NAMES OF PRIVATE VARIABLES
 VALUE NOT FOUND

 DICTIONARY
 MOTCAR( 98) = INUTILE;T2DDICO;OBLIG;ASC;LIT;DICO ; telemac2d.dico

 PARTITIONING TOOL
 MOTCAR( 99)= METIS

 FLUXLINE INPUT FILE
 MOTCAR( 36) = T2DFLX-READ;T2DFLX;FACUL;ASC;LIT;PARAL ; 

 SOURCE REGIONS DATA FILE
 MOTCAR( 49) = T2DSDN-READ;T2DSDN;FACUL;ASC;LIT;PARAL ; 

  
 DIFFERENT NUMBER OF PARALLEL PROCESSORS:
 DECLARED BEFORE (CASE OF COUPLING ?):           2
 TELEMAC-2D :           0
 VALUE            2  IS KEPT

                   ********************************************
                   *               LECDON:                    *
                   *        AFTER CALLING DAMOCLES            *
                   *        CHECKING OF DATA  READ            *
                   *         IN THE STEERING FILE             *
                   ********************************************


 EXITING LECDON. NAME OF THE STUDY:
 2d steady                                                               

 OPENING FILES FOR TELEMAC2D               
 OPENING: T2DGEO-qgismesh.slf
 OPENING: T2DCLI-boundaries.cli
 OPENING: T2DRES-r2dsteady-4.slf



                          *****************************
                          *    MEMORY ORGANIZATION    *
                          *****************************



 READ_MESH_INFO: TITLE= new Selafin                                                             
            NUMBER OF ELEMENTS:    12455
            NUMBER OF POINTS:     6366

            TYPE OF ELEMENT: TRIANGLE            
            TYPE OF BND ELEMENT: POINT               

            SINGLE PRECISION FORMAT (R4)
  
 MXPTEL (BIEF) : MAXIMUM NUMBER OF ELEMENTS AROUND A POINT:   9
                 MAXIMUM NUMBER OF POINTS AROUND A POINT:  10
 (GLOBAL MESH)
 SEGBOR (BIEF) : NUMBER OF BOUNDARY SEGMENTS =    275
 INCLUDING THOSE DUE TO DOMAIN DECOMPOSITION
 USER_CORRXY (BIEF):NO MODIFICATION OF COORDINATES

 MESH: MESH   ALLOCATED



                     *************************************
                     *    END OF MEMORY ORGANIZATION:    *
                     *************************************

 INITIALIZING TELEMAC2D FOR        
 INBIEF (BIEF): NOT A VECTOR MACHINE (ACCORDING TO YOUR DATA)
 STRCHE (BIEF): NO MODIFICATION OF FRICTION

  
 NUMBER OF LIQUID BOUNDARIES:           2

 CORFON (TELEMAC2D): NO MODIFICATION OF BOTTOM


================================================================================
 ITERATION        0    TIME:   0.0000 S
 TELEMAC2D INITIALIZED

================================================================================
 ITERATION      500    TIME:  8 MN  20.0000 S   (      500.0000 S)
--------------------------------------------------------------------------------
                    DIFFUSION-PROPAGATION STEP    
 CVTRVF_NERD_2 (SCHEME 13 OR 14):  10 ITERATIONS
 GRACJG (BIEF) :        4 ITERATIONS, ABSOLUTE PRECISION:   0.6491753E-04
 POSITIVE DEPTHS OBTAINED IN    10 ITERATIONS
--------------------------------------------------------------------------------
                          K-EPSILON MODEL         
 CVTRVF_NERD_2 (SCHEME 13 OR 14):  10 ITERATIONS
 GRACJG (BIEF) :        5 ITERATIONS, RELATIVE PRECISION:   0.5728832E-10
 GRACJG (BIEF) :        3 ITERATIONS, RELATIVE PRECISION:   0.1600845E-09
--------------------------------------------------------------------------------
                       BALANCE OF WATER VOLUME    
     VOLUME IN THE DOMAIN :    56448.22     M3
     FLUX BOUNDARY    1:     50.78573     M3/S  ( >0 : ENTERING  <0 : EXITING )
     FLUX BOUNDARY    2:     4.604305     M3/S  ( >0 : ENTERING  <0 : EXITING )
     RELATIVE ERROR IN VOLUME AT T =        500.0     S :   -0.6803551E-15

================================================================================
 ITERATION     1000    TIME: 16 MN  40.0000 S   (     1000.0000 S)
--------------------------------------------------------------------------------
                    DIFFUSION-PROPAGATION STEP    
 CVTRVF_NERD_2 (SCHEME 13 OR 14):  13 ITERATIONS
 GRACJG (BIEF) :        3 ITERATIONS, ABSOLUTE PRECISION:   0.2252341E-04
 POSITIVE DEPTHS OBTAINED IN    13 ITERATIONS
--------------------------------------------------------------------------------
                          K-EPSILON MODEL         
 CVTRVF_NERD_2 (SCHEME 13 OR 14):  13 ITERATIONS
 GRACJG (BIEF) :        3 ITERATIONS, RELATIVE PRECISION:   0.4932896E-09
 GRACJG (BIEF) :        2 ITERATIONS, RELATIVE PRECISION:   0.1821701E-09
--------------------------------------------------------------------------------
                       BALANCE OF WATER VOLUME    
     VOLUME IN THE DOMAIN :    76567.63     M3
     FLUX BOUNDARY    1:     20.87411     M3/S  ( >0 : ENTERING  <0 : EXITING )
     FLUX BOUNDARY    2:     4.088183     M3/S  ( >0 : ENTERING  <0 : EXITING )
     RELATIVE ERROR IN VOLUME AT T =        1000.     S :    0.2735911E-14

================================================================================
 ITERATION     1500    TIME: 25 MN   0.0000 S   (     1500.0000 S)
--------------------------------------------------------------------------------
                    DIFFUSION-PROPAGATION STEP    
 CVTRVF_NERD_2 (SCHEME 13 OR 14):  15 ITERATIONS
 GRACJG (BIEF) :        3 ITERATIONS, ABSOLUTE PRECISION:   0.2658507E-04
 POSITIVE DEPTHS OBTAINED IN    15 ITERATIONS
--------------------------------------------------------------------------------
                          K-EPSILON MODEL         
 CVTRVF_NERD_2 (SCHEME 13 OR 14):  15 ITERATIONS
 GRACJG (BIEF) :        3 ITERATIONS, RELATIVE PRECISION:   0.6350713E-10
 GRACJG (BIEF) :        2 ITERATIONS, RELATIVE PRECISION:   0.1680323E-09
--------------------------------------------------------------------------------
                       BALANCE OF WATER VOLUME    
     VOLUME IN THE DOMAIN :    89397.83     M3
     FLUX BOUNDARY    1:     21.65239     M3/S  ( >0 : ENTERING  <0 : EXITING )
     FLUX BOUNDARY    2:     4.107604     M3/S  ( >0 : ENTERING  <0 : EXITING )
     RELATIVE ERROR IN VOLUME AT T =        1500.     S :   -0.1627691E-14

================================================================================
 ITERATION     2000    TIME: 33 MN  20.0000 S   (     2000.0000 S)
--------------------------------------------------------------------------------
                    DIFFUSION-PROPAGATION STEP    
 CVTRVF_NERD_2 (SCHEME 13 OR 14):  13 ITERATIONS
 GRACJG (BIEF) :        3 ITERATIONS, ABSOLUTE PRECISION:   0.4829713E-04
 POSITIVE DEPTHS OBTAINED IN    13 ITERATIONS
--------------------------------------------------------------------------------
                          K-EPSILON MODEL         
 CVTRVF_NERD_2 (SCHEME 13 OR 14):  13 ITERATIONS
 GRACJG (BIEF) :        3 ITERATIONS, RELATIVE PRECISION:   0.1253048E-10
 GRACJG (BIEF) :        2 ITERATIONS, RELATIVE PRECISION:   0.3154062E-10
--------------------------------------------------------------------------------
                       BALANCE OF WATER VOLUME    
     VOLUME IN THE DOMAIN :    102275.3     M3
     FLUX BOUNDARY    1:     21.63900     M3/S  ( >0 : ENTERING  <0 : EXITING )
     FLUX BOUNDARY    2:     4.120858     M3/S  ( >0 : ENTERING  <0 : EXITING )
     RELATIVE ERROR IN VOLUME AT T =        2000.     S :   -0.1854597E-15

================================================================================
 ITERATION     2500    TIME: 41 MN  40.0000 S   (     2500.0000 S)
--------------------------------------------------------------------------------
                    DIFFUSION-PROPAGATION STEP    
 CVTRVF_NERD_2 (SCHEME 13 OR 14):  15 ITERATIONS
 GRACJG (BIEF) :        3 ITERATIONS, ABSOLUTE PRECISION:   0.3750650E-04
 POSITIVE DEPTHS OBTAINED IN    16 ITERATIONS
--------------------------------------------------------------------------------
                          K-EPSILON MODEL         
 CVTRVF_NERD_2 (SCHEME 13 OR 14):  15 ITERATIONS
 GRACJG (BIEF) :        3 ITERATIONS, RELATIVE PRECISION:   0.7159774E-11
 GRACJG (BIEF) :        3 ITERATIONS, RELATIVE PRECISION:   0.1269949E-12
--------------------------------------------------------------------------------
                       BALANCE OF WATER VOLUME    
     VOLUME IN THE DOMAIN :    115091.7     M3
     FLUX BOUNDARY    1:     21.45326     M3/S  ( >0 : ENTERING  <0 : EXITING )
     FLUX BOUNDARY    2:     4.128305     M3/S  ( >0 : ENTERING  <0 : EXITING )
     RELATIVE ERROR IN VOLUME AT T =        2500.     S :    0.4394570E-14

================================================================================
 ITERATION     3000    TIME: 50 MN   0.0000 S   (     3000.0000 S)
--------------------------------------------------------------------------------
                    DIFFUSION-PROPAGATION STEP    
 CVTRVF_NERD_2 (SCHEME 13 OR 14):  13 ITERATIONS
 GRACJG (BIEF) :        2 ITERATIONS, ABSOLUTE PRECISION:   0.4984965E-04
 POSITIVE DEPTHS OBTAINED IN    13 ITERATIONS
--------------------------------------------------------------------------------
                          K-EPSILON MODEL         
 CVTRVF_NERD_2 (SCHEME 13 OR 14):  13 ITERATIONS
 GRACJG (BIEF) :        2 ITERATIONS, RELATIVE PRECISION:   0.1902466E-09
 GRACJG (BIEF) :        2 ITERATIONS, RELATIVE PRECISION:   0.2163818E-10
--------------------------------------------------------------------------------
                       BALANCE OF WATER VOLUME    
     VOLUME IN THE DOMAIN :    127882.7     M3
     FLUX BOUNDARY    1:     21.44528     M3/S  ( >0 : ENTERING  <0 : EXITING )
     FLUX BOUNDARY    2:     4.143714     M3/S  ( >0 : ENTERING  <0 : EXITING )
     RELATIVE ERROR IN VOLUME AT T =        3000.     S :    0.1970814E-14

================================================================================
 ITERATION     3500    TIME: 58 MN  20.0000 S   (     3500.0000 S)
--------------------------------------------------------------------------------
                    DIFFUSION-PROPAGATION STEP    
 CVTRVF_NERD_2 (SCHEME 13 OR 14):  13 ITERATIONS
 GRACJG (BIEF) :        2 ITERATIONS, ABSOLUTE PRECISION:   0.5227950E-04
 POSITIVE DEPTHS OBTAINED IN    13 ITERATIONS
--------------------------------------------------------------------------------
                          K-EPSILON MODEL         
 CVTRVF_NERD_2 (SCHEME 13 OR 14):  13 ITERATIONS
 GRACJG (BIEF) :        2 ITERATIONS, RELATIVE PRECISION:   0.1034556E-09
 GRACJG (BIEF) :        2 ITERATIONS, RELATIVE PRECISION:   0.5690817E-10
--------------------------------------------------------------------------------
                       BALANCE OF WATER VOLUME    
     VOLUME IN THE DOMAIN :    140675.8     M3
     FLUX BOUNDARY    1:     21.44443     M3/S  ( >0 : ENTERING  <0 : EXITING )
     FLUX BOUNDARY    2:     4.137166     M3/S  ( >0 : ENTERING  <0 : EXITING )
     RELATIVE ERROR IN VOLUME AT T =        3500.     S :   -0.2214174E-14

================================================================================
 ITERATION     4000    TIME:  1 H  6 MIN  40.0000 S   (     4000.0000 S)
--------------------------------------------------------------------------------
                    DIFFUSION-PROPAGATION STEP    
 CVTRVF_NERD_2 (SCHEME 13 OR 14):  13 ITERATIONS
 GRACJG (BIEF) :        2 ITERATIONS, ABSOLUTE PRECISION:   0.9350735E-04
 POSITIVE DEPTHS OBTAINED IN    13 ITERATIONS
--------------------------------------------------------------------------------
                          K-EPSILON MODEL         
 CVTRVF_NERD_2 (SCHEME 13 OR 14):  13 ITERATIONS
 GRACJG (BIEF) :        2 ITERATIONS, RELATIVE PRECISION:   0.1996875E-09
 GRACJG (BIEF) :        2 ITERATIONS, RELATIVE PRECISION:   0.2278140E-09
--------------------------------------------------------------------------------
                       BALANCE OF WATER VOLUME    
     VOLUME IN THE DOMAIN :    153465.7     M3
     FLUX BOUNDARY    1:     21.44377     M3/S  ( >0 : ENTERING  <0 : EXITING )
     FLUX BOUNDARY    2:     4.135636     M3/S  ( >0 : ENTERING  <0 : EXITING )
     RELATIVE ERROR IN VOLUME AT T =        4000.     S :   -0.4494828E-14

================================================================================
 ITERATION     4500    TIME:  1 H 15 MIN   0.0000 S   (     4500.0000 S)
--------------------------------------------------------------------------------
                    DIFFUSION-PROPAGATION STEP    
 CVTRVF_NERD_2 (SCHEME 13 OR 14):  13 ITERATIONS
 GRACJG (BIEF) :        2 ITERATIONS, ABSOLUTE PRECISION:   0.5632604E-04
 POSITIVE DEPTHS OBTAINED IN    13 ITERATIONS
--------------------------------------------------------------------------------
                          K-EPSILON MODEL         
 CVTRVF_NERD_2 (SCHEME 13 OR 14):  13 ITERATIONS
 GRACJG (BIEF) :        2 ITERATIONS, RELATIVE PRECISION:   0.2173083E-09
 GRACJG (BIEF) :        2 ITERATIONS, RELATIVE PRECISION:   0.3973595E-09
--------------------------------------------------------------------------------
                       BALANCE OF WATER VOLUME    
     VOLUME IN THE DOMAIN :    166254.0     M3
     FLUX BOUNDARY    1:     21.44387     M3/S  ( >0 : ENTERING  <0 : EXITING )
     FLUX BOUNDARY    2:     4.124123     M3/S  ( >0 : ENTERING  <0 : EXITING )
     RELATIVE ERROR IN VOLUME AT T =        4500.     S :   -0.1872348E-14

================================================================================
 ITERATION     5000    TIME:  1 H 23 MIN  20.0000 S   (     5000.0000 S)
--------------------------------------------------------------------------------
                    DIFFUSION-PROPAGATION STEP    
 CVTRVF_NERD_2 (SCHEME 13 OR 14):  13 ITERATIONS
 GRACJG (BIEF) :        3 ITERATIONS, ABSOLUTE PRECISION:   0.1659260E-04
 POSITIVE DEPTHS OBTAINED IN    13 ITERATIONS
--------------------------------------------------------------------------------
                          K-EPSILON MODEL         
 CVTRVF_NERD_2 (SCHEME 13 OR 14):  13 ITERATIONS
 GRACJG (BIEF) :        2 ITERATIONS, RELATIVE PRECISION:   0.1259586E-09
 GRACJG (BIEF) :        2 ITERATIONS, RELATIVE PRECISION:   0.3790959E-09
--------------------------------------------------------------------------------
                       BALANCE OF WATER VOLUME    
     VOLUME IN THE DOMAIN :    179034.2     M3
     FLUX BOUNDARY    1:     21.44311     M3/S  ( >0 : ENTERING  <0 : EXITING )
     FLUX BOUNDARY    2:     4.106166     M3/S  ( >0 : ENTERING  <0 : EXITING )
     RELATIVE ERROR IN VOLUME AT T =        5000.     S :    0.2807894E-14

================================================================================
 ITERATION     5500    TIME:  1 H 31 MIN  40.0000 S   (     5500.0000 S)
--------------------------------------------------------------------------------
                    DIFFUSION-PROPAGATION STEP    
 CVTRVF_NERD_2 (SCHEME 13 OR 14):  13 ITERATIONS
 GRACJG (BIEF) :        2 ITERATIONS, ABSOLUTE PRECISION:   0.6091684E-04
 POSITIVE DEPTHS OBTAINED IN    13 ITERATIONS
--------------------------------------------------------------------------------
                          K-EPSILON MODEL         
 CVTRVF_NERD_2 (SCHEME 13 OR 14):  13 ITERATIONS
 GRACJG (BIEF) :        2 ITERATIONS, RELATIVE PRECISION:   0.8538845E-10
 GRACJG (BIEF) :        2 ITERATIONS, RELATIVE PRECISION:   0.2879741E-09
--------------------------------------------------------------------------------
                       BALANCE OF WATER VOLUME    
     VOLUME IN THE DOMAIN :    191801.6     M3
     FLUX BOUNDARY    1:     21.44246     M3/S  ( >0 : ENTERING  <0 : EXITING )
     FLUX BOUNDARY    2:     4.080463     M3/S  ( >0 : ENTERING  <0 : EXITING )
     RELATIVE ERROR IN VOLUME AT T =        5500.     S :   -0.8282680E-15

================================================================================
 ITERATION     6000    TIME:  1 H 40 MIN   0.0000 S   (     6000.0000 S)
--------------------------------------------------------------------------------
                    DIFFUSION-PROPAGATION STEP    
 CVTRVF_NERD_2 (SCHEME 13 OR 14):  12 ITERATIONS
 GRACJG (BIEF) :        3 ITERATIONS, ABSOLUTE PRECISION:   0.3353972E-04
 POSITIVE DEPTHS OBTAINED IN    12 ITERATIONS
--------------------------------------------------------------------------------
                          K-EPSILON MODEL         
 CVTRVF_NERD_2 (SCHEME 13 OR 14):  12 ITERATIONS
 GRACJG (BIEF) :        2 ITERATIONS, RELATIVE PRECISION:   0.1617989E-09
 GRACJG (BIEF) :        2 ITERATIONS, RELATIVE PRECISION:   0.4601545E-09
--------------------------------------------------------------------------------
                       BALANCE OF WATER VOLUME    
     VOLUME IN THE DOMAIN :    204558.7     M3
     FLUX BOUNDARY    1:     21.44207     M3/S  ( >0 : ENTERING  <0 : EXITING )
     FLUX BOUNDARY    2:     4.064521     M3/S  ( >0 : ENTERING  <0 : EXITING )
     RELATIVE ERROR IN VOLUME AT T =        6000.     S :   -0.1756986E-14

================================================================================
 ITERATION     6500    TIME:  1 H 48 MIN  20.0000 S   (     6500.0000 S)
--------------------------------------------------------------------------------
                    DIFFUSION-PROPAGATION STEP    
 CVTRVF_NERD_2 (SCHEME 13 OR 14):  12 ITERATIONS
 GRACJG (BIEF) :        2 ITERATIONS, ABSOLUTE PRECISION:   0.9503853E-04
 POSITIVE DEPTHS OBTAINED IN    12 ITERATIONS
--------------------------------------------------------------------------------
                          K-EPSILON MODEL         
 CVTRVF_NERD_2 (SCHEME 13 OR 14):  12 ITERATIONS
 GRACJG (BIEF) :        2 ITERATIONS, RELATIVE PRECISION:   0.1650852E-09
 GRACJG (BIEF) :        2 ITERATIONS, RELATIVE PRECISION:   0.3692078E-09
--------------------------------------------------------------------------------
                       BALANCE OF WATER VOLUME    
     VOLUME IN THE DOMAIN :    217310.3     M3
     FLUX BOUNDARY    1:     21.44186     M3/S  ( >0 : ENTERING  <0 : EXITING )
     FLUX BOUNDARY    2:     4.058876     M3/S  ( >0 : ENTERING  <0 : EXITING )
     RELATIVE ERROR IN VOLUME AT T =        6500.     S :    0.1444364E-14

================================================================================
 ITERATION     7000    TIME:  1 H 56 MIN  40.0000 S   (     7000.0000 S)
--------------------------------------------------------------------------------
                    DIFFUSION-PROPAGATION STEP    
 CVTRVF_NERD_2 (SCHEME 13 OR 14):  12 ITERATIONS
 GRACJG (BIEF) :        2 ITERATIONS, ABSOLUTE PRECISION:   0.8859539E-04
 POSITIVE DEPTHS OBTAINED IN    12 ITERATIONS
--------------------------------------------------------------------------------
                          K-EPSILON MODEL         
 CVTRVF_NERD_2 (SCHEME 13 OR 14):  12 ITERATIONS
 GRACJG (BIEF) :        2 ITERATIONS, RELATIVE PRECISION:   0.1541930E-09
 GRACJG (BIEF) :        2 ITERATIONS, RELATIVE PRECISION:   0.5090502E-09
--------------------------------------------------------------------------------
                       BALANCE OF WATER VOLUME    
     VOLUME IN THE DOMAIN :    230059.8     M3
     FLUX BOUNDARY    1:     21.44177     M3/S  ( >0 : ENTERING  <0 : EXITING )
     FLUX BOUNDARY    2:     4.055467     M3/S  ( >0 : ENTERING  <0 : EXITING )
     RELATIVE ERROR IN VOLUME AT T =        7000.     S :    0.9360975E-15

================================================================================
 ITERATION     7500    TIME:  2 H  5 MIN   0.0000 S   (     7500.0000 S)
--------------------------------------------------------------------------------
                    DIFFUSION-PROPAGATION STEP    
 CVTRVF_NERD_2 (SCHEME 13 OR 14):  12 ITERATIONS
 GRACJG (BIEF) :        2 ITERATIONS, ABSOLUTE PRECISION:   0.4114783E-04
 POSITIVE DEPTHS OBTAINED IN    12 ITERATIONS
--------------------------------------------------------------------------------
                          K-EPSILON MODEL         
 CVTRVF_NERD_2 (SCHEME 13 OR 14):  12 ITERATIONS
 GRACJG (BIEF) :        2 ITERATIONS, RELATIVE PRECISION:   0.3383289E-09
 GRACJG (BIEF) :        2 ITERATIONS, RELATIVE PRECISION:   0.3604401E-09
--------------------------------------------------------------------------------
                       BALANCE OF WATER VOLUME    
     VOLUME IN THE DOMAIN :    242817.2     M3
     FLUX BOUNDARY    1:     21.44173     M3/S  ( >0 : ENTERING  <0 : EXITING )
     FLUX BOUNDARY    2:     4.138152     M3/S  ( >0 : ENTERING  <0 : EXITING )
     RELATIVE ERROR IN VOLUME AT T =        7500.     S :    0.8854819E-16

================================================================================
 ITERATION     8000    TIME:  2 H 13 MIN  20.0000 S   (     8000.0000 S)
--------------------------------------------------------------------------------
                    DIFFUSION-PROPAGATION STEP    
 CVTRVF_NERD_2 (SCHEME 13 OR 14):  13 ITERATIONS
 GRACJG (BIEF) :        2 ITERATIONS, ABSOLUTE PRECISION:   0.3671842E-04
 POSITIVE DEPTHS OBTAINED IN    13 ITERATIONS
--------------------------------------------------------------------------------
                          K-EPSILON MODEL         
 CVTRVF_NERD_2 (SCHEME 13 OR 14):  13 ITERATIONS
 GRACJG (BIEF) :        2 ITERATIONS, RELATIVE PRECISION:   0.3110949E-09
 GRACJG (BIEF) :        2 ITERATIONS, RELATIVE PRECISION:   0.3768150E-09
--------------------------------------------------------------------------------
                       BALANCE OF WATER VOLUME    
     VOLUME IN THE DOMAIN :    255640.9     M3
     FLUX BOUNDARY    1:     21.44169     M3/S  ( >0 : ENTERING  <0 : EXITING )
     FLUX BOUNDARY    2:     3.967418     M3/S  ( >0 : ENTERING  <0 : EXITING )
     RELATIVE ERROR IN VOLUME AT T =        8000.     S :   -0.3538609E-14

================================================================================
 ITERATION     8500    TIME:  2 H 21 MIN  40.0000 S   (     8500.0000 S)
--------------------------------------------------------------------------------
                    DIFFUSION-PROPAGATION STEP    
 CVTRVF_NERD_2 (SCHEME 13 OR 14):  12 ITERATIONS
 GRACJG (BIEF) :        1 ITERATIONS, ABSOLUTE PRECISION:   0.7245556E-04
 POSITIVE DEPTHS OBTAINED IN    13 ITERATIONS
--------------------------------------------------------------------------------
                          K-EPSILON MODEL         
 CVTRVF_NERD_2 (SCHEME 13 OR 14):  12 ITERATIONS
 GRACJG (BIEF) :        2 ITERATIONS, RELATIVE PRECISION:   0.2341273E-09
 GRACJG (BIEF) :        2 ITERATIONS, RELATIVE PRECISION:   0.3839871E-09
--------------------------------------------------------------------------------
                       BALANCE OF WATER VOLUME    
     VOLUME IN THE DOMAIN :    266008.5     M3
     FLUX BOUNDARY    1:     21.44167     M3/S  ( >0 : ENTERING  <0 : EXITING )
     FLUX BOUNDARY    2:    -6.408212     M3/S  ( >0 : ENTERING  <0 : EXITING )
     RELATIVE ERROR IN VOLUME AT T =        8500.     S :    0.1059276E-14

================================================================================
 ITERATION     9000    TIME:  2 H 30 MIN   0.0000 S   (     9000.0000 S)
--------------------------------------------------------------------------------
                    DIFFUSION-PROPAGATION STEP    
 CVTRVF_NERD_2 (SCHEME 13 OR 14):  12 ITERATIONS
 GRACJG (BIEF) :        1 ITERATIONS, ABSOLUTE PRECISION:   0.6412801E-04
 POSITIVE DEPTHS OBTAINED IN    13 ITERATIONS
--------------------------------------------------------------------------------
                          K-EPSILON MODEL         
 CVTRVF_NERD_2 (SCHEME 13 OR 14):  12 ITERATIONS
 GRACJG (BIEF) :        2 ITERATIONS, RELATIVE PRECISION:   0.6000419E-10
 GRACJG (BIEF) :        2 ITERATIONS, RELATIVE PRECISION:   0.3853677E-09
--------------------------------------------------------------------------------
                       BALANCE OF WATER VOLUME    
     VOLUME IN THE DOMAIN :    271951.3     M3
     FLUX BOUNDARY    1:     21.44165     M3/S  ( >0 : ENTERING  <0 : EXITING )
     FLUX BOUNDARY    2:    -12.32844     M3/S  ( >0 : ENTERING  <0 : EXITING )
     RELATIVE ERROR IN VOLUME AT T =        9000.     S :   -0.5268625E-16

================================================================================
 ITERATION     9500    TIME:  2 H 38 MIN  20.0000 S   (     9500.0000 S)
--------------------------------------------------------------------------------
                    DIFFUSION-PROPAGATION STEP    
 CVTRVF_NERD_2 (SCHEME 13 OR 14):  13 ITERATIONS
 GRACJG (BIEF) :        1 ITERATIONS, ABSOLUTE PRECISION:   0.3252317E-04
 POSITIVE DEPTHS OBTAINED IN    13 ITERATIONS
--------------------------------------------------------------------------------
                          K-EPSILON MODEL         
 CVTRVF_NERD_2 (SCHEME 13 OR 14):  13 ITERATIONS
 GRACJG (BIEF) :        2 ITERATIONS, RELATIVE PRECISION:   0.2741388E-10
 GRACJG (BIEF) :        2 ITERATIONS, RELATIVE PRECISION:   0.3822561E-09
--------------------------------------------------------------------------------
                       BALANCE OF WATER VOLUME    
     VOLUME IN THE DOMAIN :    275475.5     M3
     FLUX BOUNDARY    1:     21.44164     M3/S  ( >0 : ENTERING  <0 : EXITING )
     FLUX BOUNDARY    2:    -16.14921     M3/S  ( >0 : ENTERING  <0 : EXITING )
     RELATIVE ERROR IN VOLUME AT T =        9500.     S :    0.1086930E-15

================================================================================
 ITERATION    10000    TIME:  2 H 46 MIN  40.0000 S   (    10000.0000 S)
--------------------------------------------------------------------------------
                    DIFFUSION-PROPAGATION STEP    
 CVTRVF_NERD_2 (SCHEME 13 OR 14):  13 ITERATIONS
 GRACJG (BIEF) :        1 ITERATIONS, ABSOLUTE PRECISION:   0.2506278E-04
 POSITIVE DEPTHS OBTAINED IN    13 ITERATIONS
--------------------------------------------------------------------------------
                          K-EPSILON MODEL         
 CVTRVF_NERD_2 (SCHEME 13 OR 14):  13 ITERATIONS
 GRACJG (BIEF) :        2 ITERATIONS, RELATIVE PRECISION:   0.3818162E-10
 GRACJG (BIEF) :        2 ITERATIONS, RELATIVE PRECISION:   0.3787831E-09
--------------------------------------------------------------------------------
                       BALANCE OF WATER VOLUME    
     VOLUME IN THE DOMAIN :    277497.7     M3
     FLUX BOUNDARY    1:     21.44164     M3/S  ( >0 : ENTERING  <0 : EXITING )
     FLUX BOUNDARY    2:    -18.43727     M3/S  ( >0 : ENTERING  <0 : EXITING )
     RELATIVE ERROR IN VOLUME AT T =       0.1000E+05 S :   -0.3066741E-14

================================================================================
 ITERATION    10500    TIME:  2 H 55 MIN   0.0000 S   (    10500.0000 S)
--------------------------------------------------------------------------------
                    DIFFUSION-PROPAGATION STEP    
 CVTRVF_NERD_2 (SCHEME 13 OR 14):  13 ITERATIONS
 GRACJG (BIEF) :        1 ITERATIONS, ABSOLUTE PRECISION:   0.3237398E-04
 POSITIVE DEPTHS OBTAINED IN    13 ITERATIONS
--------------------------------------------------------------------------------
                          K-EPSILON MODEL         
 CVTRVF_NERD_2 (SCHEME 13 OR 14):  13 ITERATIONS
 GRACJG (BIEF) :        2 ITERATIONS, RELATIVE PRECISION:   0.1394638E-10
 GRACJG (BIEF) :        2 ITERATIONS, RELATIVE PRECISION:   0.3762657E-09
--------------------------------------------------------------------------------
                       BALANCE OF WATER VOLUME    
     VOLUME IN THE DOMAIN :    278639.7     M3
     FLUX BOUNDARY    1:     21.44163     M3/S  ( >0 : ENTERING  <0 : EXITING )
     FLUX BOUNDARY    2:    -19.75483     M3/S  ( >0 : ENTERING  <0 : EXITING )
     RELATIVE ERROR IN VOLUME AT T =       0.1050E+05 S :   -0.6014017E-15

================================================================================
 ITERATION    11000    TIME:  3 H  3 MIN  20.0000 S   (    11000.0000 S)
--------------------------------------------------------------------------------
                    DIFFUSION-PROPAGATION STEP    
 CVTRVF_NERD_2 (SCHEME 13 OR 14):  13 ITERATIONS
 GRACJG (BIEF) :        1 ITERATIONS, ABSOLUTE PRECISION:   0.1779252E-04
 POSITIVE DEPTHS OBTAINED IN    13 ITERATIONS
--------------------------------------------------------------------------------
                          K-EPSILON MODEL         
 CVTRVF_NERD_2 (SCHEME 13 OR 14):  13 ITERATIONS
 GRACJG (BIEF) :        2 ITERATIONS, RELATIVE PRECISION:   0.2388872E-10
 GRACJG (BIEF) :        2 ITERATIONS, RELATIVE PRECISION:   0.3747204E-09
--------------------------------------------------------------------------------
                       BALANCE OF WATER VOLUME    
     VOLUME IN THE DOMAIN :    279279.7     M3
     FLUX BOUNDARY    1:     21.44163     M3/S  ( >0 : ENTERING  <0 : EXITING )
     FLUX BOUNDARY    2:    -20.49551     M3/S  ( >0 : ENTERING  <0 : EXITING )
     RELATIVE ERROR IN VOLUME AT T =       0.1100E+05 S :   -0.4228647E-14

================================================================================
 ITERATION    11500    TIME:  3 H 11 MIN  40.0000 S   (    11500.0000 S)
--------------------------------------------------------------------------------
                    DIFFUSION-PROPAGATION STEP    
 CVTRVF_NERD_2 (SCHEME 13 OR 14):  13 ITERATIONS
 GRACJG (BIEF) :        1 ITERATIONS, ABSOLUTE PRECISION:   0.2234334E-04
 POSITIVE DEPTHS OBTAINED IN    13 ITERATIONS
--------------------------------------------------------------------------------
                          K-EPSILON MODEL         
 CVTRVF_NERD_2 (SCHEME 13 OR 14):  13 ITERATIONS
 GRACJG (BIEF) :        2 ITERATIONS, RELATIVE PRECISION:   0.1590776E-10
 GRACJG (BIEF) :        2 ITERATIONS, RELATIVE PRECISION:   0.3738484E-09
--------------------------------------------------------------------------------
                       BALANCE OF WATER VOLUME    
     VOLUME IN THE DOMAIN :    279639.0     M3
     FLUX BOUNDARY    1:     21.44163     M3/S  ( >0 : ENTERING  <0 : EXITING )
     FLUX BOUNDARY    2:    -20.90994     M3/S  ( >0 : ENTERING  <0 : EXITING )
     RELATIVE ERROR IN VOLUME AT T =       0.1150E+05 S :    0.2407467E-14

================================================================================
 ITERATION    12000    TIME:  3 H 20 MIN   0.0000 S   (    12000.0000 S)
--------------------------------------------------------------------------------
                    DIFFUSION-PROPAGATION STEP    
 CVTRVF_NERD_2 (SCHEME 13 OR 14):  13 ITERATIONS
 GRACJG (BIEF) :        0 ITERATIONS, ABSOLUTE PRECISION:   0.9511787E-04
 POSITIVE DEPTHS OBTAINED IN    13 ITERATIONS
--------------------------------------------------------------------------------
                          K-EPSILON MODEL         
 CVTRVF_NERD_2 (SCHEME 13 OR 14):  13 ITERATIONS
 GRACJG (BIEF) :        2 ITERATIONS, RELATIVE PRECISION:   0.1222045E-10
 GRACJG (BIEF) :        2 ITERATIONS, RELATIVE PRECISION:   0.3735351E-09
--------------------------------------------------------------------------------
                       BALANCE OF WATER VOLUME    
     VOLUME IN THE DOMAIN :    279840.9     M3
     FLUX BOUNDARY    1:     21.44163     M3/S  ( >0 : ENTERING  <0 : EXITING )
     FLUX BOUNDARY    2:    -21.14336     M3/S  ( >0 : ENTERING  <0 : EXITING )
     RELATIVE ERROR IN VOLUME AT T =       0.1200E+05 S :    0.2055969E-14

================================================================================
 ITERATION    12500    TIME:  3 H 28 MIN  20.0000 S   (    12500.0000 S)
--------------------------------------------------------------------------------
                    DIFFUSION-PROPAGATION STEP    
 CVTRVF_NERD_2 (SCHEME 13 OR 14):  13 ITERATIONS
 GRACJG (BIEF) :        1 ITERATIONS, ABSOLUTE PRECISION:   0.2416937E-04
 POSITIVE DEPTHS OBTAINED IN    13 ITERATIONS
--------------------------------------------------------------------------------
                          K-EPSILON MODEL         
 CVTRVF_NERD_2 (SCHEME 13 OR 14):  13 ITERATIONS
 GRACJG (BIEF) :        2 ITERATIONS, RELATIVE PRECISION:   0.1105850E-10
 GRACJG (BIEF) :        2 ITERATIONS, RELATIVE PRECISION:   0.3732946E-09
--------------------------------------------------------------------------------
                       BALANCE OF WATER VOLUME    
     VOLUME IN THE DOMAIN :    279952.9     M3
     FLUX BOUNDARY    1:     21.44163     M3/S  ( >0 : ENTERING  <0 : EXITING )
     FLUX BOUNDARY    2:    -21.27617     M3/S  ( >0 : ENTERING  <0 : EXITING )
     RELATIVE ERROR IN VOLUME AT T =       0.1250E+05 S :   -0.1939245E-14

================================================================================
 ITERATION    13000    TIME:  3 H 36 MIN  40.0000 S   (    13000.0000 S)
--------------------------------------------------------------------------------
                    DIFFUSION-PROPAGATION STEP    
 CVTRVF_NERD_2 (SCHEME 13 OR 14):  13 ITERATIONS
 GRACJG (BIEF) :        1 ITERATIONS, ABSOLUTE PRECISION:   0.4590487E-04
 POSITIVE DEPTHS OBTAINED IN    13 ITERATIONS
--------------------------------------------------------------------------------
                          K-EPSILON MODEL         
 CVTRVF_NERD_2 (SCHEME 13 OR 14):  13 ITERATIONS
 GRACJG (BIEF) :        2 ITERATIONS, RELATIVE PRECISION:   0.7952598E-11
 GRACJG (BIEF) :        2 ITERATIONS, RELATIVE PRECISION:   0.3731344E-09
--------------------------------------------------------------------------------
                       BALANCE OF WATER VOLUME    
     VOLUME IN THE DOMAIN :    280017.0     M3
     FLUX BOUNDARY    1:     21.44163     M3/S  ( >0 : ENTERING  <0 : EXITING )
     FLUX BOUNDARY    2:    -21.34462     M3/S  ( >0 : ENTERING  <0 : EXITING )
     RELATIVE ERROR IN VOLUME AT T =       0.1300E+05 S :   -0.1788594E-14

================================================================================
 ITERATION    13500    TIME:  3 H 45 MIN   0.0000 S   (    13500.0000 S)
--------------------------------------------------------------------------------
                    DIFFUSION-PROPAGATION STEP    
 CVTRVF_NERD_2 (SCHEME 13 OR 14):  13 ITERATIONS
 GRACJG (BIEF) :        1 ITERATIONS, ABSOLUTE PRECISION:   0.2574700E-04
 POSITIVE DEPTHS OBTAINED IN    13 ITERATIONS
--------------------------------------------------------------------------------
                          K-EPSILON MODEL         
 CVTRVF_NERD_2 (SCHEME 13 OR 14):  13 ITERATIONS
 GRACJG (BIEF) :        2 ITERATIONS, RELATIVE PRECISION:   0.6728642E-11
 GRACJG (BIEF) :        2 ITERATIONS, RELATIVE PRECISION:   0.3730438E-09
--------------------------------------------------------------------------------
                       BALANCE OF WATER VOLUME    
     VOLUME IN THE DOMAIN :    280054.6     M3
     FLUX BOUNDARY    1:     21.44163     M3/S  ( >0 : ENTERING  <0 : EXITING )
     FLUX BOUNDARY    2:    -21.38429     M3/S  ( >0 : ENTERING  <0 : EXITING )
     RELATIVE ERROR IN VOLUME AT T =       0.1350E+05 S :    0.4961107E-14

================================================================================
 ITERATION    14000    TIME:  3 H 53 MIN  20.0000 S   (    14000.0000 S)
--------------------------------------------------------------------------------
                    DIFFUSION-PROPAGATION STEP    
 CVTRVF_NERD_2 (SCHEME 13 OR 14):  13 ITERATIONS
 GRACJG (BIEF) :        1 ITERATIONS, ABSOLUTE PRECISION:   0.3505686E-04
 POSITIVE DEPTHS OBTAINED IN    13 ITERATIONS
--------------------------------------------------------------------------------
                          K-EPSILON MODEL         
 CVTRVF_NERD_2 (SCHEME 13 OR 14):  13 ITERATIONS
 GRACJG (BIEF) :        2 ITERATIONS, RELATIVE PRECISION:   0.7079175E-11
 GRACJG (BIEF) :        2 ITERATIONS, RELATIVE PRECISION:   0.3729925E-09
--------------------------------------------------------------------------------
                       BALANCE OF WATER VOLUME    
     VOLUME IN THE DOMAIN :    280077.0     M3
     FLUX BOUNDARY    1:     21.44163     M3/S  ( >0 : ENTERING  <0 : EXITING )
     FLUX BOUNDARY    2:    -21.40749     M3/S  ( >0 : ENTERING  <0 : EXITING )
     RELATIVE ERROR IN VOLUME AT T =       0.1400E+05 S :    0.1005015E-15

================================================================================
 ITERATION    14500    TIME:  4 H  1 MIN  40.0000 S   (    14500.0000 S)
--------------------------------------------------------------------------------
                    DIFFUSION-PROPAGATION STEP    
 CVTRVF_NERD_2 (SCHEME 13 OR 14):  13 ITERATIONS
 GRACJG (BIEF) :        0 ITERATIONS, ABSOLUTE PRECISION:   0.7217058E-04
 POSITIVE DEPTHS OBTAINED IN    13 ITERATIONS
--------------------------------------------------------------------------------
                          K-EPSILON MODEL         
 CVTRVF_NERD_2 (SCHEME 13 OR 14):  13 ITERATIONS
 GRACJG (BIEF) :        2 ITERATIONS, RELATIVE PRECISION:   0.5618704E-11
 GRACJG (BIEF) :        2 ITERATIONS, RELATIVE PRECISION:   0.3729655E-09
--------------------------------------------------------------------------------
                       BALANCE OF WATER VOLUME    
     VOLUME IN THE DOMAIN :    280090.3     M3
     FLUX BOUNDARY    1:     21.44163     M3/S  ( >0 : ENTERING  <0 : EXITING )
     FLUX BOUNDARY    2:    -21.42117     M3/S  ( >0 : ENTERING  <0 : EXITING )
     RELATIVE ERROR IN VOLUME AT T =       0.1450E+05 S :   -0.9788121E-15

================================================================================
 ITERATION    15000    TIME:  4 H 10 MIN   0.0000 S   (    15000.0000 S)
--------------------------------------------------------------------------------
                    DIFFUSION-PROPAGATION STEP    
 CVTRVF_NERD_2 (SCHEME 13 OR 14):  13 ITERATIONS
 GRACJG (BIEF) :        0 ITERATIONS, ABSOLUTE PRECISION:   0.5933175E-04
 POSITIVE DEPTHS OBTAINED IN    13 ITERATIONS
--------------------------------------------------------------------------------
                          K-EPSILON MODEL         
 CVTRVF_NERD_2 (SCHEME 13 OR 14):  13 ITERATIONS
 GRACJG (BIEF) :        2 ITERATIONS, RELATIVE PRECISION:   0.4288866E-11
 GRACJG (BIEF) :        2 ITERATIONS, RELATIVE PRECISION:   0.3729518E-09
--------------------------------------------------------------------------------
                       BALANCE OF WATER VOLUME    
     VOLUME IN THE DOMAIN :    280098.3     M3
     FLUX BOUNDARY    1:     21.44163     M3/S  ( >0 : ENTERING  <0 : EXITING )
     FLUX BOUNDARY    2:    -21.42927     M3/S  ( >0 : ENTERING  <0 : EXITING )
     RELATIVE ERROR IN VOLUME AT T =       0.1500E+05 S :   -0.1050866E-14
--------------------------------------------------------------------------------
                   FINAL BALANCE OF WATER VOLUME  

     RELATIVE ERROR CUMULATED ON VOLUME:   -0.7481214E-14

     INITIAL VOLUME              :     0.000000     M3
     FINAL VOLUME                :     280098.3     M3
     VOLUME THAT ENTERED THE DOMAIN:     280098.3     M3  ( IF <0 EXIT )
     TOTAL VOLUME LOST             :   -0.2095476E-08 M3



                     *************************************
                     *    END OF MEMORY ORGANIZATION:    *
                     *************************************




 CORRECT END OF RUN



 ELAPSE TIME : 
                              2  MINUTES
                              8  SECONDS
